
 *******************************************************************************

         NASA-GLENN CHEMICAL EQUILIBRIUM PROGRAM CEA2, MAY 21, 2004
                   BY  BONNIE MCBRIDE AND SANFORD GORDON
      REFS: NASA RP-1311, PART I, 1994 AND NASA RP-1311, PART II, 1996

 *******************************************************************************



 !
 !              SIX-CHARACTER REFERENCE-DATE CODES
 !
 !
 !  Letters         Reference                         Numbers
 !  __________________________________________________________________
 !
 !    g      Glenn Research Center              Month/year calculated
 !
 !    j      NIST-JANAF Thermochemical          Month/year of table
 !           Tables. Chase,1998
 !
 !    tpis   Thermodynamic Properties of        Year of volume
 !           Individual Substances. Gurvich,
 !           1978,1979,1982,1989,1991,1996
 !
 !    n      TRC Thermodynamic Tables, NIST     Month/year of table
 !
 !    bar    Barin:Thermochemical Data of       Year of volume
 !           Pure Substances. Barin,1989
 !
 !    coda   CODATA Key Values for              Year of volume
 !           Thermodynamics. Cox,1989
 !
 !    srd    Standard Reference Data            Year of J.Phys.Chem.Ref.
 !                                              Data journal
 !
 !
 !
 !                   ORDER OF SPECIES
 !
 !
 !         1)  Gaseous products/reactants
 !
 !         2)  Condensed products/reactants
 !
 !         3)  Gaseous/condensed reactants only (starts with "Air")
 !
 !
 !
 thermo
 e-               g12/98   0.000000E+00     Ref-Species. Chase,1998 3/82.                                 
 ALCL3(L)         tpis96  -0.705100E+06     Liquid. Gurvich,1996a pt1 p172 pt2 p133.                      
 ALF3(II)         tpis96  -0.151040E+07     Hexagonal. Gurvich,1996a pt1 p156 pt2 p119.                   
 ALF3(I)          tpis96  -0.151040E+07     Cubic. Gurvich,1996a pt1 p156 pt2 p119.                       
